4
step: 10
 O 0.057854 0.027456 0.018359
 C 1.242086 -0.029215 -0.019483
H 2.039247 0.772037 -0.023530
H 1.911976 -0.859712 -0.035712
4
step: 20
 O 0.054244 0.054807 0.033917
 C 1.287185 -0.066152 -0.033216
H 1.822902 0.945602 -0.059173
H 1.648183 -1.027278 -0.083385
4
step: 10
 O 0.019707 0.085907 0.053913
 C 1.291798 -0.071677 -0.063650
H 2.139986 0.709511 -0.066781
H 1.750672 -0.991152 -0.173822
4
step: 20
 O 0.077743 0.130546 0.073594
 C 1.209109 -0.103603 -0.089396
H 1.965250 0.775596 -0.017652
H 1.555311 -1.081671 -0.244725
