4

 O 0.197062 0.298175 -0.357465
 C 1.336426 -0.000033 0.000001
H 1.757660 1.039508 -0.000001
H 1.757558 -1.039615 0.000003
4

 O 0.193411 0.292212 -0.350316
 C 1.336426 -0.000033 0.000001
H 1.757660 1.039508 -0.000001
H 1.757558 -1.039615 0.000003
4

 O 0.189759 0.286249 -0.343167
 C 1.336426 -0.000033 0.000001
H 1.757660 1.039508 -0.000001
H 1.757558 -1.039615 0.000003
4

 O 0.186108 0.280286 -0.336017
 C 1.336426 -0.000033 0.000001
H 1.757660 1.039508 -0.000001
H 1.757558 -1.039615 0.000003
4

 O 0.182457 0.274323 -0.328868
 C 1.336426 -0.000033 0.000001
H 1.757660 1.039508 -0.000001
H 1.757558 -1.039615 0.000003
4

 O 0.178806 0.268360 -0.321719
 C 1.336426 -0.000033 0.000001
H 1.757660 1.039508 -0.000001
H 1.757558 -1.039615 0.000003
4

 O 0.175154 0.262398 -0.314569
 C 1.336426 -0.000033 0.000001
H 1.757660 1.039508 -0.000001
H 1.757558 -1.039615 0.000003
4

 O 0.171503 0.256435 -0.307420
 C 1.336426 -0.000033 0.000001
H 1.757660 1.039508 -0.000001
H 1.757558 -1.039615 0.000003
4

 O 0.167852 0.250472 -0.300271
 C 1.336426 -0.000033 0.000001
H 1.757660 1.039508 -0.000001
H 1.757558 -1.039615 0.000003
4

 O 0.164201 0.244509 -0.293122
 C 1.336426 -0.000033 0.000001
H 1.757660 1.039508 -0.000001
H 1.757558 -1.039615 0.000003
4

 O 0.160549 0.238546 -0.285972
 C 1.336426 -0.000033 0.000001
H 1.757660 1.039508 -0.000001
H 1.757558 -1.039615 0.000003
4

 O 0.156898 0.232583 -0.278823
 C 1.336426 -0.000033 0.000001
H 1.757660 1.039508 -0.000001
H 1.757558 -1.039615 0.000003
4

 O 0.153247 0.226621 -0.271674
 C 1.336426 -0.000033 0.000001
H 1.757660 1.039508 -0.000001
H 1.757558 -1.039615 0.000003
4

 O 0.149595 0.220658 -0.264524
 C 1.336426 -0.000033 0.000001
H 1.757660 1.039508 -0.000001
H 1.757558 -1.039615 0.000003
4

 O 0.145944 0.214695 -0.257375
 C 1.336426 -0.000033 0.000001
H 1.757660 1.039508 -0.000001
H 1.757558 -1.039615 0.000003
4

 O 0.142293 0.208732 -0.250226
 C 1.336426 -0.000033 0.000001
H 1.757660 1.039508 -0.000001
H 1.757558 -1.039615 0.000003
4

 O 0.138642 0.202769 -0.243076
 C 1.336426 -0.000033 0.000001
H 1.757660 1.039508 -0.000001
H 1.757558 -1.039615 0.000003
4

 O 0.134990 0.196806 -0.235927
 C 1.336426 -0.000033 0.000001
H 1.757660 1.039508 -0.000001
H 1.757558 -1.039615 0.000003
4

 O 0.131339 0.190843 -0.228778
 C 1.336426 -0.000033 0.000001
H 1.757660 1.039508 -0.000001
H 1.757558 -1.039615 0.000003
4

 O 0.127688 0.184881 -0.221628
 C 1.336426 -0.000033 0.000001
H 1.757660 1.039508 -0.000001
H 1.757558 -1.039615 0.000003
4

 O 0.124036 0.178918 -0.214479
 C 1.336426 -0.000033 0.000001
H 1.757660 1.039508 -0.000001
H 1.757558 -1.039615 0.000003
4

 O 0.120385 0.172955 -0.207330
 C 1.336426 -0.000033 0.000001
H 1.757660 1.039508 -0.000001
H 1.757558 -1.039615 0.000003
4

 O 0.116734 0.166992 -0.200181
 C 1.336426 -0.000033 0.000001
H 1.757660 1.039508 -0.000001
H 1.757558 -1.039615 0.000003
4

 O 0.113083 0.161029 -0.193031
 C 1.336426 -0.000033 0.000001
H 1.757660 1.039508 -0.000001
H 1.757558 -1.039615 0.000003
4

 O 0.109431 0.155066 -0.185882
 C 1.336426 -0.000033 0.000001
H 1.757660 1.039508 -0.000001
H 1.757558 -1.039615 0.000003
4

 O 0.105780 0.149103 -0.178733
 C 1.336426 -0.000033 0.000001
H 1.757660 1.039508 -0.000001
H 1.757558 -1.039615 0.000003
4

 O 0.102129 0.143141 -0.171583
 C 1.336426 -0.000033 0.000001
H 1.757660 1.039508 -0.000001
H 1.757558 -1.039615 0.000003
4

 O 0.098477 0.137178 -0.164434
 C 1.336426 -0.000033 0.000001
H 1.757660 1.039508 -0.000001
H 1.757558 -1.039615 0.000003
4

 O 0.094826 0.131215 -0.157285
 C 1.336426 -0.000033 0.000001
H 1.757660 1.039508 -0.000001
H 1.757558 -1.039615 0.000003
4

 O 0.091175 0.125252 -0.150135
 C 1.336426 -0.000033 0.000001
H 1.757660 1.039508 -0.000001
H 1.757558 -1.039615 0.000003
4

 O 0.087524 0.119289 -0.142986
 C 1.336426 -0.000033 0.000001
H 1.757660 1.039508 -0.000001
H 1.757558 -1.039615 0.000003
4

 O 0.083872 0.113326 -0.135837
 C 1.336426 -0.000033 0.000001
H 1.757660 1.039508 -0.000001
H 1.757558 -1.039615 0.000003
4

 O 0.080221 0.107363 -0.128688
 C 1.336426 -0.000033 0.000001
H 1.757660 1.039508 -0.000001
H 1.757558 -1.039615 0.000003
4

 O 0.076570 0.101401 -0.121538
 C 1.336426 -0.000033 0.000001
H 1.757660 1.039508 -0.000001
H 1.757558 -1.039615 0.000003
4

 O 0.072918 0.095438 -0.114389
 C 1.336426 -0.000033 0.000001
H 1.757660 1.039508 -0.000001
H 1.757558 -1.039615 0.000003
4

 O 0.069267 0.089475 -0.107240
 C 1.336426 -0.000033 0.000001
H 1.757660 1.039508 -0.000001
H 1.757558 -1.039615 0.000003
4

 O 0.065616 0.083512 -0.100090
 C 1.336426 -0.000033 0.000001
H 1.757660 1.039508 -0.000001
H 1.757558 -1.039615 0.000003
4

 O 0.061965 0.077549 -0.092941
 C 1.336426 -0.000033 0.000001
H 1.757660 1.039508 -0.000001
H 1.757558 -1.039615 0.000003
4

 O 0.058313 0.071586 -0.085792
 C 1.336426 -0.000033 0.000001
H 1.757660 1.039508 -0.000001
H 1.757558 -1.039615 0.000003
4

 O 0.054662 0.065623 -0.078642
 C 1.336426 -0.000033 0.000001
H 1.757660 1.039508 -0.000001
H 1.757558 -1.039615 0.000003
4

 O 0.051011 0.059661 -0.071493
 C 1.336426 -0.000033 0.000001
H 1.757660 1.039508 -0.000001
H 1.757558 -1.039615 0.000003
4

 O 0.047360 0.053698 -0.064344
 C 1.336426 -0.000033 0.000001
H 1.757660 1.039508 -0.000001
H 1.757558 -1.039615 0.000003
4

 O 0.043708 0.047735 -0.057195
 C 1.336426 -0.000033 0.000001
H 1.757660 1.039508 -0.000001
H 1.757558 -1.039615 0.000003
4

 O 0.040057 0.041772 -0.050045
 C 1.336426 -0.000033 0.000001
H 1.757660 1.039508 -0.000001
H 1.757558 -1.039615 0.000003
4

 O 0.036406 0.035809 -0.042896
 C 1.336426 -0.000033 0.000001
H 1.757660 1.039508 -0.000001
H 1.757558 -1.039615 0.000003
4

 O 0.032754 0.029846 -0.035747
 C 1.336426 -0.000033 0.000001
H 1.757660 1.039508 -0.000001
H 1.757558 -1.039615 0.000003
4

 O 0.029103 0.023883 -0.028597
 C 1.336426 -0.000033 0.000001
H 1.757660 1.039508 -0.000001
H 1.757558 -1.039615 0.000003
4

 O 0.025452 0.017921 -0.021448
 C 1.336426 -0.000033 0.000001
H 1.757660 1.039508 -0.000001
H 1.757558 -1.039615 0.000003
4

 O 0.021801 0.011958 -0.014299
 C 1.336426 -0.000033 0.000001
H 1.757660 1.039508 -0.000001
H 1.757558 -1.039615 0.000003
4

 O 0.018149 0.005995 -0.007149
 C 1.336426 -0.000033 0.000001
H 1.757660 1.039508 -0.000001
H 1.757558 -1.039615 0.000003
4

 O 0.014498 0.000032 -0.000000
 C 1.336426 -0.000033 0.000001
H 1.757660 1.039508 -0.000001
H 1.757558 -1.039615 0.000003
4

 O 0.010847 -0.005931 0.007149
 C 1.336426 -0.000033 0.000001
H 1.757660 1.039508 -0.000001
H 1.757558 -1.039615 0.000003
4

 O 0.007195 -0.011894 0.014298
 C 1.336426 -0.000033 0.000001
H 1.757660 1.039508 -0.000001
H 1.757558 -1.039615 0.000003
4

 O 0.003544 -0.017856 0.021448
 C 1.336426 -0.000033 0.000001
H 1.757660 1.039508 -0.000001
H 1.757558 -1.039615 0.000003
4

 O -0.000107 -0.023819 0.028597
 C 1.336426 -0.000033 0.000001
H 1.757660 1.039508 -0.000001
H 1.757558 -1.039615 0.000003
4

 O -0.003758 -0.029782 0.035746
 C 1.336426 -0.000033 0.000001
H 1.757660 1.039508 -0.000001
H 1.757558 -1.039615 0.000003
4

 O -0.007410 -0.035745 0.042896
 C 1.336426 -0.000033 0.000001
H 1.757660 1.039508 -0.000001
H 1.757558 -1.039615 0.000003
4

 O -0.011061 -0.041708 0.050045
 C 1.336426 -0.000033 0.000001
H 1.757660 1.039508 -0.000001
H 1.757558 -1.039615 0.000003
4

 O -0.014712 -0.047671 0.057194
 C 1.336426 -0.000033 0.000001
H 1.757660 1.039508 -0.000001
H 1.757558 -1.039615 0.000003
4

 O -0.018364 -0.053634 0.064344
 C 1.336426 -0.000033 0.000001
H 1.757660 1.039508 -0.000001
H 1.757558 -1.039615 0.000003
4

 O -0.022015 -0.059596 0.071493
 C 1.336426 -0.000033 0.000001
H 1.757660 1.039508 -0.000001
H 1.757558 -1.039615 0.000003
4

 O -0.025666 -0.065559 0.078642
 C 1.336426 -0.000033 0.000001
H 1.757660 1.039508 -0.000001
H 1.757558 -1.039615 0.000003
4

 O -0.029317 -0.071522 0.085792
 C 1.336426 -0.000033 0.000001
H 1.757660 1.039508 -0.000001
H 1.757558 -1.039615 0.000003
4

 O -0.032969 -0.077485 0.092941
 C 1.336426 -0.000033 0.000001
H 1.757660 1.039508 -0.000001
H 1.757558 -1.039615 0.000003
4

 O -0.036620 -0.083448 0.100090
 C 1.336426 -0.000033 0.000001
H 1.757660 1.039508 -0.000001
H 1.757558 -1.039615 0.000003
4

 O -0.040271 -0.089411 0.107239
 C 1.336426 -0.000033 0.000001
H 1.757660 1.039508 -0.000001
H 1.757558 -1.039615 0.000003
4

 O -0.043923 -0.095374 0.114389
 C 1.336426 -0.000033 0.000001
H 1.757660 1.039508 -0.000001
H 1.757558 -1.039615 0.000003
4

 O -0.047574 -0.101336 0.121538
 C 1.336426 -0.000033 0.000001
H 1.757660 1.039508 -0.000001
H 1.757558 -1.039615 0.000003
4

 O -0.051225 -0.107299 0.128687
 C 1.336426 -0.000033 0.000001
H 1.757660 1.039508 -0.000001
H 1.757558 -1.039615 0.000003
4

 O -0.054876 -0.113262 0.135837
 C 1.336426 -0.000033 0.000001
H 1.757660 1.039508 -0.000001
H 1.757558 -1.039615 0.000003
4

 O -0.058528 -0.119225 0.142986
 C 1.336426 -0.000033 0.000001
H 1.757660 1.039508 -0.000001
H 1.757558 -1.039615 0.000003
4

 O -0.062179 -0.125188 0.150135
 C 1.336426 -0.000033 0.000001
H 1.757660 1.039508 -0.000001
H 1.757558 -1.039615 0.000003
4

 O -0.065830 -0.131151 0.157285
 C 1.336426 -0.000033 0.000001
H 1.757660 1.039508 -0.000001
H 1.757558 -1.039615 0.000003
4

 O -0.069481 -0.137114 0.164434
 C 1.336426 -0.000033 0.000001
H 1.757660 1.039508 -0.000001
H 1.757558 -1.039615 0.000003
4

 O -0.073133 -0.143076 0.171583
 C 1.336426 -0.000033 0.000001
H 1.757660 1.039508 -0.000001
H 1.757558 -1.039615 0.000003
4

 O -0.076784 -0.149039 0.178732
 C 1.336426 -0.000033 0.000001
H 1.757660 1.039508 -0.000001
H 1.757558 -1.039615 0.000003
4

 O -0.080435 -0.155002 0.185882
 C 1.336426 -0.000033 0.000001
H 1.757660 1.039508 -0.000001
H 1.757558 -1.039615 0.000003
4

 O -0.084087 -0.160965 0.193031
 C 1.336426 -0.000033 0.000001
H 1.757660 1.039508 -0.000001
H 1.757558 -1.039615 0.000003
4

 O -0.087738 -0.166928 0.200180
 C 1.336426 -0.000033 0.000001
H 1.757660 1.039508 -0.000001
H 1.757558 -1.039615 0.000003
4

 O -0.091389 -0.172891 0.207330
 C 1.336426 -0.000033 0.000001
H 1.757660 1.039508 -0.000001
H 1.757558 -1.039615 0.000003
4

 O -0.095040 -0.178854 0.214479
 C 1.336426 -0.000033 0.000001
H 1.757660 1.039508 -0.000001
H 1.757558 -1.039615 0.000003
4

 O -0.098692 -0.184816 0.221628
 C 1.336426 -0.000033 0.000001
H 1.757660 1.039508 -0.000001
H 1.757558 -1.039615 0.000003
4

 O -0.102343 -0.190779 0.228778
 C 1.336426 -0.000033 0.000001
H 1.757660 1.039508 -0.000001
H 1.757558 -1.039615 0.000003
4

 O -0.105994 -0.196742 0.235927
 C 1.336426 -0.000033 0.000001
H 1.757660 1.039508 -0.000001
H 1.757558 -1.039615 0.000003
4

 O -0.109646 -0.202705 0.243076
 C 1.336426 -0.000033 0.000001
H 1.757660 1.039508 -0.000001
H 1.757558 -1.039615 0.000003
4

 O -0.113297 -0.208668 0.250225
 C 1.336426 -0.000033 0.000001
H 1.757660 1.039508 -0.000001
H 1.757558 -1.039615 0.000003
4

 O -0.116948 -0.214631 0.257375
 C 1.336426 -0.000033 0.000001
H 1.757660 1.039508 -0.000001
H 1.757558 -1.039615 0.000003
4

 O -0.120599 -0.220593 0.264524
 C 1.336426 -0.000033 0.000001
H 1.757660 1.039508 -0.000001
H 1.757558 -1.039615 0.000003
4

 O -0.124251 -0.226556 0.271673
 C 1.336426 -0.000033 0.000001
H 1.757660 1.039508 -0.000001
H 1.757558 -1.039615 0.000003
4

 O -0.127902 -0.232519 0.278823
 C 1.336426 -0.000033 0.000001
H 1.757660 1.039508 -0.000001
H 1.757558 -1.039615 0.000003
4

 O -0.131553 -0.238482 0.285972
 C 1.336426 -0.000033 0.000001
H 1.757660 1.039508 -0.000001
H 1.757558 -1.039615 0.000003
4

 O -0.135205 -0.244445 0.293121
 C 1.336426 -0.000033 0.000001
H 1.757660 1.039508 -0.000001
H 1.757558 -1.039615 0.000003
4

 O -0.138856 -0.250408 0.300271
 C 1.336426 -0.000033 0.000001
H 1.757660 1.039508 -0.000001
H 1.757558 -1.039615 0.000003
4

 O -0.142507 -0.256371 0.307420
 C 1.336426 -0.000033 0.000001
H 1.757660 1.039508 -0.000001
H 1.757558 -1.039615 0.000003
4

 O -0.146158 -0.262333 0.314569
 C 1.336426 -0.000033 0.000001
H 1.757660 1.039508 -0.000001
H 1.757558 -1.039615 0.000003
4

 O -0.149810 -0.268296 0.321719
 C 1.336426 -0.000033 0.000001
H 1.757660 1.039508 -0.000001
H 1.757558 -1.039615 0.000003
4

 O -0.153461 -0.274259 0.328868
 C 1.336426 -0.000033 0.000001
H 1.757660 1.039508 -0.000001
H 1.757558 -1.039615 0.000003
4

 O -0.157112 -0.280222 0.336017
 C 1.336426 -0.000033 0.000001
H 1.757660 1.039508 -0.000001
H 1.757558 -1.039615 0.000003
4

 O -0.160764 -0.286185 0.343166
 C 1.336426 -0.000033 0.000001
H 1.757660 1.039508 -0.000001
H 1.757558 -1.039615 0.000003
4

 O -0.164415 -0.292148 0.350316
 C 1.336426 -0.000033 0.000001
H 1.757660 1.039508 -0.000001
H 1.757558 -1.039615 0.000003
4

 O -0.168066 -0.298111 0.357465
 C 1.336426 -0.000033 0.000001
H 1.757660 1.039508 -0.000001
H 1.757558 -1.039615 0.000003
